*HEADING
cubit(entify/lib/Axisymmetric Indentation/true_mesh_coarse4.inp): 05/12/2024: 14
version: 2023.4
**
********************************** P A R T S **********************************
*PART, NAME=Part-Default
**
********************************** N O D E S **********************************
*NODE, NSET=ALLNODES
       1,    0.000000e+00,    0.000000e+00,    3.500000e+01
       2,    0.000000e+00,    1.283333e+01,    3.500000e+01
       3,    0.000000e+00,    1.166667e+01,    3.500000e+01
       4,    0.000000e+00,    1.050000e+01,    3.500000e+01
       5,    0.000000e+00,    9.333333e+00,    3.500000e+01
       6,    0.000000e+00,    8.166667e+00,    3.500000e+01
       7,    0.000000e+00,    7.000000e+00,    3.500000e+01
       8,    0.000000e+00,    5.833333e+00,    3.500000e+01
       9,    0.000000e+00,    4.666667e+00,    3.500000e+01
      10,    0.000000e+00,    3.500000e+00,    3.500000e+01
      11,    0.000000e+00,    2.333333e+00,    3.500000e+01
      12,    0.000000e+00,    1.166667e+00,    3.500000e+01
      13,    1.166667e+00,    0.000000e+00,    3.500000e+01
      14,    2.333333e+00,    0.000000e+00,    3.500000e+01
      15,    3.500000e+00,    0.000000e+00,    3.500000e+01
      16,    4.666667e+00,    0.000000e+00,    3.500000e+01
      17,    5.833333e+00,    0.000000e+00,    3.500000e+01
      18,    7.000000e+00,    0.000000e+00,    3.500000e+01
      19,    8.166667e+00,    0.000000e+00,    3.500000e+01
      20,    9.333333e+00,    0.000000e+00,    3.500000e+01
** ... 6862 like lines cut
**
********************************** E L E M E N T S ****************************
*ELEMENT, TYPE=C3D8R, ELSET=EB1
       1,    2768,    2791,    3067,    2969,    2781,    2828,    3660,    3233
       2,    2791,    2790,    3058,    3067,    2828,    2841,    3661,    3660
       3,    2790,    2789,    3049,    3058,    2841,    2854,    3662,    3661
       4,    2789,    2788,    3040,    3049,    2854,    2867,    3663,    3662
       5,    2788,    2787,    3031,    3040,    2867,    2880,    3664,    3663
       6,    2787,    2786,    3022,    3031,    2880,    2893,    3665,    3664
       7,    2786,    2785,    3013,    3022,    2893,    2906,    3666,    3665
       8,    2785,    2784,    3004,    3013,    2906,    2919,    3667,    3666
       9,    2784,    2783,    2995,    3004,    2919,    2932,    3668,    3667
      10,    2783,    2782,    2967,    2995,    2932,    2810,    3442,    3668
      11,    2969,    3067,    3066,    2970,    3233,    3660,    3669,    3220
      12,    3067,    3058,    3057,    3066,    3660,    3661,    3670,    3669
      13,    3058,    3049,    3048,    3057,    3661,    3662,    3671,    3670
      14,    3049,    3040,    3039,    3048,    3662,    3663,    3672,    3671
      15,    3040,    3031,    3030,    3039,    3663,    3664,    3673,    3672
      16,    3031,    3022,    3021,    3030,    3664,    3665,    3674,    3673
      17,    3022,    3013,    3012,    3021,    3665,    3666,    3675,    3674
      18,    3013,    3004,    3003,    3012,    3666,    3667,    3676,    3675
      19,    3004,    2995,    2994,    3003,    3667,    3668,    3677,    3676
      20,    2995,    2967,    2966,    2994,    3668,    3442,    3461,    3677
** ... 5963 like lines cut
**
********************************** S I D E S E T S **********************************
*ELSET, ELSET=SS1_S1
    2497,    2500,    2503,    2506,    2509,    2512,    2515,    2518,    2521,    2524,
    2527,    2530,    2533,    2536,    2539,    2542,    2545,    2548,    2551,    2554,
    2557,    2560,    2563,    2566,    2569
*ELSET, ELSET=SS1_S2
    1651,    1652,    1653,    1654,    1655,    1656,    1657,    1658,    1659,    1660,
    1661,    1662,    1663,    1664,    1665,    1666,    1667,    1668,    1669,    1670,
    1671,    1672,    1673,    1674,    1675,    1676,    1677,    1678,    1679,    1680,
    1681,    1682,    1683,    1684,    1685,    1686,    1687,    1688,    1689,    1690,
    1691,    1692,    1693,    1694,    1695,    1696,    1697,    1698,    1699,    1700,
    1701,    1702,    1703,    1704,    1705,    1806,    1807,    1808,    1809,    1810,
    1811,    1812,    1813,    1814,    1815,    1816,    1817,    1818,    1819,    1820,
    1821,    1822,    1823,    1824,    1825,    1837,    1872,    1997,    2052,    2160,
    2233,    2328,    2449,    2574,    2576,    2582,    2586,    2590,    2594,    2598,
    2602,    2606,    2610,    2614,    2618,    2622,    2626,    2630,    2634,    2638,
    2642,    2646,    2650,    2654,    2658,    2662,    2664,    2670,    2674
*ELSET, ELSET=SS1_S3
    3392,    3393,    3394,    3395,    3396,    3397,    3398,    3399,    3400,    3401,
    3402,    3403,    3404,    3405,    3406,    3407,    3408,    3409,    3608,    3609,
    3610,    3611,    3612,    3613,    3614,    3615,    3616,    3617,    3618,    3619,
    3620,    3621,    3622,    3623,    3624,    3625,    3824,    3825,    3826,    3827,
    3828,    3829,    3830,    3831,    3832,    3833,    3834,    3835,    3836,    3837,
    3838,    3839,    3840,    3841,    4040,    4041,    4042,    4043,    4044,    4045,
    4046,    4047,    4048,    4049,    4050,    4051,    4052,    4053,    4054,    4055,
    4056,    4057,    4256,    4257,    4258,    4259,    4260,    4261,    4262,    4263,
    4264,    4265,    4266,    4267,    4268,    4269,    4270,    4271,    4272,    4273,
    4472,    4473,    4474,    4475,    4476,    4477,    4478,    4479,    4480,    4481,
    4482,    4483,    4484,    4485,    4486,    4487,    4488,    4489,    4688,    4689,
    4690,    4691,    4692,    4693,    4694,    4695,    4696,    4697,    4698,    4699,
    4700,    4701,    4702,    4703,    4704,    4705,    4904,    4905,    4906,    4907,
    4908,    4909,    4910,    4911,    4912,    4913,    4914,    4915,    4916,    4917,
    4918,    4919,    4920,    4921,    5120,    5121,    5122,    5123,    5124,    5125,
    5126,    5127,    5128,    5129,    5130,    5131,    5132,    5133,    5134,    5135,
    5136,    5137,    5336,    5337,    5338,    5339,    5340,    5341,    5342,    5343,
    5344,    5345,    5346,    5347,    5348,    5349,    5350,    5351,    5352,    5353,
    5552,    5553,    5554,    5555,    5556,    5557,    5558,    5559,    5560,    5561,
    5562,    5563,    5564,    5565,    5566,    5567,    5568,    5569,    5768,    5769,
    5770,    5771,    5772,    5773,    5774,    5775,    5776,    5777,    5778,    5779,
    5780,    5781,    5782,    5783,    5784,    5785
*SURFACE, NAME=SS1
SS1_S1, S1
SS1_S2, S2
SS1_S3, S3
*ELSET, ELSET=SS2_S2
    1953,    1956,    1959,    1962,    1965,    1968,    1971
*ELSET, ELSET=SS2_S3
       1,       2,       3,       4,       5,       6,       7,       8,       9,      10,
     101,     102,     103,     104,     105,     106,     107,     108,     109,     110,
     201,     202,     203,     204,     205,     206,     207,     208,     209,     210,
     301,     302,     303,     304,     305,     306,     307,     308,     309,     310,
     401,     402,     403,     404,     405,     406,     407,     408,     409,     410,
     501,     502,     503,     504,     505,     506,     507,     508,     509,     510,
     601,     602,     603,     604,     605,     606,     607,     608,     609,     610,
     701,     702,     703,     704,     705,     706,     707,     708,     709,     710,
     801,     802,     803,     804,     805,     806,     807,     808,     809,     810,
     901,     902,     903,     904,     905,     906,     907,     908,     909,     910,
    1001,    1002,    1003,    1004,    1005,    1006,    1007,    1008,    1009,    1010,
    1101,    1102,    1103,    1104,    1105,    1106,    1107,    1108,    1109,    1110,
    1201,    1202,    1203,    1204,    1205,    1206,    1207,    1208,    1209,    1210,
    1301,    1302,    1303,    1304,    1305,    1706,    1707,    1708,    1709,    1710,
    1726,    1727,    1728,    1729,    1730,    1746,    1747,    1748,    1749,    1750,
    1766,    1767,    1768,    1769,    1770,    1786,    1787,    1788,    1789,    1790,
    1806,    1807,    1808,    1809,    1810,    1868,    1922,    1972,    1976,    1984,
    1988,    1992,    2000,    2004,    2008,    2053,    2054,    2055,    2056,    2323,
    2324,    2325,    2326,    2444,    2445,    2446,    2447,    2596,    2597,    2598,
    2599,    2799,    2800,    2801,    2802,    2978,    2979,    2980,    2981,    3145,
    3146,    3147,    3148,    3336,    3337,    3338,    3339
*ELSET, ELSET=SS2_S5
    2033,    2034,    2035,    2279,    2280,    2281,    2400,    2401,    2402,    2509,
    2510,    2511,    2709,    2710,    2711,    2888,    2889,    2890,    3079,    3080,
    3081,    3249,    3250,    3251
*ELSET, ELSET=SS2_S6
    3392,    3410,    3428,    3446,    3464,    3482,    3500,    3518,    3536,    3554,
    3572,    3590,    3608,    3626,    3644,    3662,    3680,    3698,    3716,    3734,
    3752,    3770,    3788,    3806,    3824,    3842,    3860,    3878,    3896,    3914,
    3932,    3950,    3968,    3986,    4004,    4022,    4040,    4058,    4076,    4094,
    4112,    4130,    4148,    4166,    4184,    4202,    4220,    4238,    4256,    4274,
    4292,    4310,    4328,    4346,    4364,    4382,    4400,    4418,    4436,    4454,
    4472,    4490,    4508,    4526,    4544,    4562,    4580,    4598,    4616,    4634,
    4652,    4670,    4688,    4706,    4724,    4742,    4760,    4778,    4796,    4814,
    4832,    4850,    4868,    4886,    4904,    4922,    4940,    4958,    4976,    4994,
    5012,    5030,    5048,    5066,    5084,    5102,    5120,    5138,    5156,    5174,
    5192,    5210,    5228,    5246,    5264,    5282,    5300,    5318,    5336,    5354,
    5372,    5390,    5408,    5426,    5444,    5462,    5480,    5498,    5516,    5534,
    5552,    5570,    5588,    5606,    5624,    5642,    5660,    5678,    5696,    5714,
    5732,    5750,    5768,    5786,    5804,    5822,    5840,    5858,    5876,    5894,
    5912,    5930,    5948,    5966
*SURFACE, NAME=SS2
SS2_S2, S2
SS2_S3, S3
SS2_S5, S5
SS2_S6, S6
*ELSET, ELSET=SS3_S5
      91,      92,      93,      94,      95,      96,      97,      98,      99,     100,
     191,     192,     193,     194,     195,     196,     197,     198,     199,     200,
     291,     292,     293,     294,     295,     296,     297,     298,     299,     300,
     391,     392,     393,     394,     395,     396,     397,     398,     399,     400,
     491,     492,     493,     494,     495,     496,     497,     498,     499,     500,
     591,     592,     593,     594,     595,     596,     597,     598,     599,     600,
     691,     692,     693,     694,     695,     696,     697,     698,     699,     700,
     791,     792,     793,     794,     795,     796,     797,     798,     799,     800,
     891,     892,     893,     894,     895,     896,     897,     898,     899,     900,
     991,     992,     993,     994,     995,     996,     997,     998,     999,    1000,
    1091,    1092,    1093,    1094,    1095,    1096,    1097,    1098,    1099,    1100,
    1191,    1192,    1193,    1194,    1195,    1196,    1197,    1198,    1199,    1200,
    1291,    1292,    1293,    1294,    1295,    1296,    1297,    1298,    1299,    1300,
    1366,    1367,    1368,    1369,    1370,    1371,    1372,    1373,    1374,    1375,
    1421,    1422,    1423,    1424,    1425,    1426,    1427,    1428,    1429,    1430,
    1476,    1477,    1478,    1479,    1480,    1481,    1482,    1483,    1484,    1485,
    1531,    1532,    1533,    1534,    1535,    1536,    1537,    1538,    1539,    1540,
    1586,    1587,    1588,    1589,    1590,    1591,    1592,    1593,    1594,    1595,
    1641,    1642,    1643,    1644,    1645,    1646,    1647,    1648,    1649,    1650,
    1696,    1697,    1698,    1699,    1700,    1701,    1702,    1703,    1704,    1705
*SURFACE, NAME=SS3
SS3_S5, S5
*ELSET, ELSET=SS4_S1
    2012,    2015,    2018,    2021,    2024,    2027,    2030,    2033,    2036,    2039,
    3392,    3393,    3394,    3395,    3396,    3397,    3398,    3399,    3400,    3401,
    3402,    3403,    3404,    3405,    3406,    3407,    3408,    3409,    3410,    3411,
    3412,    3413,    3414,    3415,    3416,    3417,    3418,    3419,    3420,    3421,
    3422,    3423,    3424,    3425,    3426,    3427,    3428,    3429,    3430,    3431,
    3432,    3433,    3434,    3435,    3436,    3437,    3438,    3439,    3440,    3441,
    3442,    3443,    3444,    3445,    3446,    3447,    3448,    3449,    3450,    3451,
    3452,    3453,    3454,    3455,    3456,    3457,    3458,    3459,    3460,    3461,
    3462,    3463,    3464,    3465,    3466,    3467,    3468,    3469,    3470,    3471,
    3472,    3473,    3474,    3475,    3476,    3477,    3478,    3479,    3480,    3481,
    3482,    3483,    3484,    3485,    3486,    3487,    3488,    3489,    3490,    3491,
    3492,    3493,    3494,    3495,    3496,    3497,    3498,    3499,    3500,    3501,
    3502,    3503,    3504,    3505,    3506,    3507,    3508,    3509,    3510,    3511,
    3512,    3513,    3514,    3515,    3516,    3517,    3518,    3519,    3520,    3521,
    3522,    3523,    3524,    3525,    3526,    3527,    3528,    3529,    3530,    3531,
    3532,    3533,    3534,    3535,    3536,    3537,    3538,    3539,    3540,    3541,
    3542,    3543,    3544,    3545,    3546,    3547,    3548,    3549,    3550,    3551,
    3552,    3553,    3554,    3555,    3556,    3557,    3558,    3559,    3560,    3561,
    3562,    3563,    3564,    3565,    3566,    3567,    3568,    3569,    3570,    3571,
    3572,    3573,    3574,    3575,    3576,    3577,    3578,    3579,    3580,    3581,
    3582,    3583,    3584,    3585,    3586,    3587,    3588,    3589,    3590,    3591,
    3592,    3593,    3594,    3595,    3596,    3597,    3598,    3599,    3600,    3601,
    3602,    3603,    3604,    3605,    3606,    3607
*ELSET, ELSET=SS4_S3
    2108,    2109,    2110,    2189,    2190,    2191,    2539,    2540,    2541,    2724,
    2725,    2726,    2903,    2904,    2905,    3049,    3050,    3051,    3273,    3274,
    3275
*ELSET, ELSET=SS4_S6
       1,      11,      21,      31,      41,      51,      61,      71,      81,      91,
     101,     111,     121,     131,     141,     151,     161,     171,     181,     191,
     201,     211,     221,     231,     241,     251,     261,     271,     281,     291,
     301,     311,     321,     331,     341,     351,     361,     371,     381,     391,
     401,     411,     421,     431,     441,     451,     461,     471,     481,     491,
     501,     511,     521,     531,     541,     551,     561,     571,     581,     591,
     601,     611,     621,     631,     641,     651,     661,     671,     681,     691,
     701,     711,     721,     731,     741,     751,     761,     771,     781,     791,
     801,     811,     821,     831,     841,     851,     861,     871,     881,     891,
     901,     911,     921,     931,     941,     951,     961,     971,     981,     991,
    1001,    1011,    1021,    1031,    1041,    1051,    1061,    1071,    1081,    1091,
    1101,    1111,    1121,    1131,    1141,    1151,    1161,    1171,    1181,    1191,
    1201,    1211,    1221,    1231,    1241,    1251,    1261,    1271,    1281,    1291,
    1326,    1336,    1346,    1356,    1366,    1381,    1391,    1401,    1411,    1421,
    1436,    1446,    1456,    1466,    1476,    1491,    1501,    1511,    1521,    1531,
    1546,    1556,    1566,    1576,    1586,    1601,    1611,    1621,    1631,    1641,
    1656,    1666,    1676,    1686,    1696,    1835,    1923,    1980,    2042,    2046,
    2053,    2057,    2061,    2066,    2070,    2077,    2083,    2085,    2089,    2132,
    2133,    2134,    2135,    2217,    2218,    2219,    2220,    2576,    2577,    2578,
    2579,    2767,    2768,    2769,    2770,    2946,    2947,    2948,    2949,    3173,
    3174,    3175,    3176,    3312,    3313,    3314,    3315
*SURFACE, NAME=SS4
SS4_S1, S1
SS4_S3, S3
SS4_S6, S6
**
********************************** P R O P E R T I E S ************************
*SOLID SECTION, ELSET=EB1, MATERIAL=Default-Steel
**
*END PART
**
**
**
********************************** E N D   P A R T S **********************************
**
**
********************************** A S S E M B L Y ************************************
**
*ASSEMBLY, NAME=ASSEMBLY1
**
*INSTANCE, NAME=Part-Default_1, PART=Part-Default
*END INSTANCE
**
*END ASSEMBLY
**
**
**
*MATERIAL, NAME = Default-Steel
*ELASTIC, TYPE=ISOTROPIC
2.068000e+05, 2.900000e-01
*DENSITY
7.000000e-06
*CONDUCTIVITY,TYPE=ISO
4.500000e-02
*SPECIFIC HEAT
5.000000e+02
**
**
************************************** H I S T O R Y *************************************
**
*PREPRINT
**
**************************************** S T E P 1 ***************************************
*STEP,INC=100,NAME=Default Set
**
*STATIC
1, 1, 1e-05, 1
**
**
**
**
*END STEP
