*HEADING
cubit(entify/lib/Axisymmetric Indentation/true_mesh_coarse2.inp): 05/12/2024: 13
version: 2023.4
**
********************************** P A R T S **********************************
*PART, NAME=Part-Default
**
********************************** N O D E S **********************************
*NODE, NSET=ALLNODES
       1,    1.400000e+01,    3.500000e+00,    3.500000e+01
       2,    1.400000e+01,    7.000000e+00,    3.500000e+01
       3,    1.400000e+01,    1.050000e+01,    3.500000e+01
       4,    1.050000e+01,    1.400000e+01,    3.500000e+01
       5,    7.000000e+00,    1.400000e+01,    3.500000e+01
       6,    3.500000e+00,    1.400000e+01,    3.500000e+01
       7,    0.000000e+00,    0.000000e+00,    3.500000e+01
       8,    0.000000e+00,    1.050000e+01,    3.500000e+01
       9,    0.000000e+00,    7.000000e+00,    3.500000e+01
      10,    0.000000e+00,    3.500000e+00,    3.500000e+01
      11,    3.500000e+00,    0.000000e+00,    3.500000e+01
      12,    7.000000e+00,    0.000000e+00,    3.500000e+01
      13,    1.050000e+01,    0.000000e+00,    3.500000e+01
      14,    1.050000e+01,    3.500000e+00,    3.500000e+01
      15,    1.050000e+01,    7.000000e+00,    3.500000e+01
      16,    1.050000e+01,    1.050000e+01,    3.500000e+01
      17,    7.000000e+00,    3.500000e+00,    3.500000e+01
      18,    7.000000e+00,    7.000000e+00,    3.500000e+01
      19,    7.000000e+00,    1.050000e+01,    3.500000e+01
      20,    3.500000e+00,    3.500000e+00,    3.500000e+01
** ... 427 like lines cut
**
********************************** E L E M E N T S ****************************
*ELEMENT, TYPE=C3D8R, ELSET=EB1
       1,     176,     181,     203,     196,     178,     188,     237,     213
       2,     181,     180,     201,     203,     188,     190,     238,     237
       3,     180,     179,     194,     201,     190,     185,     229,     238
       4,     196,     203,     202,     197,     213,     237,     239,     211
       5,     203,     201,     200,     202,     237,     238,     240,     239
       6,     201,     194,     193,     200,     238,     229,     233,     240
       7,     197,     202,     198,     195,     211,     239,     225,     207
       8,     202,     200,     199,     198,     239,     240,     221,     225
       9,     200,     193,     192,     199,     240,     233,     217,     221
      10,     178,     188,     237,     213,     177,     187,     241,     212
      11,     188,     190,     238,     237,     187,     189,     242,     241
      12,     190,     185,     229,     238,     189,     184,     228,     242
      13,     213,     237,     239,     211,     212,     241,     243,     210
      14,     237,     238,     240,     239,     241,     242,     244,     243
      15,     238,     229,     233,     240,     242,     228,     232,     244
      16,     211,     239,     225,     207,     210,     243,     224,     206
      17,     239,     240,     221,     225,     243,     244,     220,     224
      18,     240,     233,     217,     221,     244,     232,     216,     220
      19,     189,     184,     228,     242,     186,     183,     227,     234
      20,     242,     228,     232,     244,     234,     227,     231,     236
** ... 267 like lines cut
**
********************************** S I D E S E T S **********************************
*ELSET, ELSET=SS1_S1
     139,     142,     145,     148,     151,     154,     157
*ELSET, ELSET=SS1_S2
      28,      29,      30,      31,      33,      41,      64,     162,     164,     170,
     174,     178,     180,     186,     190
*ELSET, ELSET=SS1_S4
     197,     203,     209,     215,     221,     227,     233,     239,     245,     251,
     257,     263,     269,     275,     281,     287
*SURFACE, NAME=SS1
SS1_S1, S1
SS1_S2, S2
SS1_S4, S4
*ELSET, ELSET=SS2_S2
      40
*ELSET, ELSET=SS2_S3
       1,       2,       3,      10,      11,      12,      19,      32,      33,      43,
      48,      65,      66,      67,      68,     131,     132,     133,     134,     172,
     173,     174,     175
*ELSET, ELSET=SS2_S5
      58,      59,      60,     104,     105,     106,     151,     152,     153
*ELSET, ELSET=SS2_S6
     192,     198,     204,     210,     216,     222,     228,     234,     240,     246,
     252,     258,     264,     270,     276,     282
*SURFACE, NAME=SS2
SS2_S2, S2
SS2_S3, S3
SS2_S5, S5
SS2_S6, S6
*ELSET, ELSET=SS3_S5
       7,       8,       9,      16,      17,      18,      21,      22,      23,      25,
      26,      27,      29,      30,      31
*SURFACE, NAME=SS3
SS3_S5, S5
*ELSET, ELSET=SS4_S1
      52,      55,      58,      61
*ELSET, ELSET=SS4_S3
      92,      93,      94,     154,     155,     156,     192,     193,     194,     195,
     196,     197,     216,     217,     218,     219,     220,     221,     240,     241,
     242,     243,     244,     245,     264,     265,     266,     267,     268,     269
*ELSET, ELSET=SS4_S6
       1,       4,       7,      10,      13,      16,      21,      25,      29,      47,
      65,      69,      76,      78,      82,     111,     112,     113,     114,     164,
     165,     166,     167
*SURFACE, NAME=SS4
SS4_S1, S1
SS4_S3, S3
SS4_S6, S6
**
********************************** P R O P E R T I E S ************************
*SOLID SECTION, ELSET=EB1, MATERIAL=Default-Steel
**
*END PART
**
**
**
********************************** E N D   P A R T S **********************************
**
**
********************************** A S S E M B L Y ************************************
**
*ASSEMBLY, NAME=ASSEMBLY1
**
*INSTANCE, NAME=Part-Default_1, PART=Part-Default
*END INSTANCE
**
*END ASSEMBLY
**
**
**
*MATERIAL, NAME = Default-Steel
*ELASTIC, TYPE=ISOTROPIC
2.068000e+05, 2.900000e-01
*DENSITY
7.000000e-06
*CONDUCTIVITY,TYPE=ISO
4.500000e-02
*SPECIFIC HEAT
5.000000e+02
**
**
************************************** H I S T O R Y *************************************
**
*PREPRINT
**
**************************************** S T E P 1 ***************************************
*STEP,INC=100,NAME=Default Set
**
*STATIC
1, 1, 1e-05, 1
**
**
**
**
*END STEP
