*HEADING
cubit(ndentify/lib/Axisymmetric Indentation/true_mesh_fine1.inp): 05/05/2024: 13
version: 2023.4
**
********************************** P A R T S **********************************
*PART, NAME=Part-Default
**
********************************** N O D E S **********************************
*NODE, NSET=ALLNODES
       1,    0.000000e+00,    0.000000e+00,    3.500000e+01
       2,    0.000000e+00,    1.322222e+01,    3.500000e+01
       3,    0.000000e+00,    1.244444e+01,    3.500000e+01
       4,    0.000000e+00,    1.166667e+01,    3.500000e+01
       5,    0.000000e+00,    1.088889e+01,    3.500000e+01
       6,    0.000000e+00,    1.011111e+01,    3.500000e+01
       7,    0.000000e+00,    9.333333e+00,    3.500000e+01
       8,    0.000000e+00,    8.555556e+00,    3.500000e+01
       9,    0.000000e+00,    7.777778e+00,    3.500000e+01
      10,    0.000000e+00,    7.000000e+00,    3.500000e+01
      11,    0.000000e+00,    6.222222e+00,    3.500000e+01
      12,    0.000000e+00,    5.444444e+00,    3.500000e+01
      13,    0.000000e+00,    4.666667e+00,    3.500000e+01
      14,    0.000000e+00,    3.888889e+00,    3.500000e+01
      15,    0.000000e+00,    3.111111e+00,    3.500000e+01
      16,    0.000000e+00,    2.333333e+00,    3.500000e+01
      17,    0.000000e+00,    1.555556e+00,    3.500000e+01
      18,    0.000000e+00,    7.777778e-01,    3.500000e+01
      19,    7.777778e-01,    0.000000e+00,    3.500000e+01
      20,    1.555556e+00,    0.000000e+00,    3.500000e+01
** ... 13602 like lines cut
**
********************************** E L E M E N T S ****************************
*ELEMENT, TYPE=C3D8R, ELSET=EB1
       1,    8800,    8811,    8880,    8857,    8806,    8828,    9013,    8919
       2,    8811,    8810,    8876,    8880,    8828,    8834,    9014,    9013
       3,    8810,    8809,    8872,    8876,    8834,    8840,    9015,    9014
       4,    8809,    8808,    8868,    8872,    8840,    8846,    9016,    9015
       5,    8808,    8807,    8855,    8868,    8846,    8820,    8973,    9016
       6,    8857,    8880,    8879,    8858,    8919,    9013,    9017,    8913
       7,    8880,    8876,    8875,    8879,    9013,    9014,    9018,    9017
       8,    8876,    8872,    8871,    8875,    9014,    9015,    9019,    9018
       9,    8872,    8868,    8867,    8871,    9015,    9016,    9020,    9019
      10,    8868,    8855,    8854,    8867,    9016,    8973,    8982,    9020
      11,    8858,    8879,    8878,    8859,    8913,    9017,    9021,    8907
      12,    8879,    8875,    8874,    8878,    9017,    9018,    9022,    9021
      13,    8875,    8871,    8870,    8874,    9018,    9019,    9023,    9022
      14,    8871,    8867,    8866,    8870,    9019,    9020,    9024,    9023
      15,    8867,    8854,    8853,    8866,    9020,    8982,    8991,    9024
      16,    8859,    8878,    8877,    8860,    8907,    9021,    9025,    8901
      17,    8878,    8874,    8873,    8877,    9021,    9022,    9026,    9025
      18,    8874,    8870,    8869,    8873,    9022,    9023,    9027,    9026
      19,    8870,    8866,    8865,    8869,    9023,    9024,    9028,    9027
      20,    8866,    8853,    8852,    8865,    9024,    8991,    9000,    9028
** ... 12612 like lines cut
**
********************************** S I D E S E T S **********************************
*ELSET, ELSET=SS1_S1
     561,     564,     633,     636,     937,    1218,    1281,    1470,    1639,    1847,
    2171,    2222,    3585,    3589,    3595,    3599,    3603,    3671,    3675,    3679,
    3683,    3685,    3691,    3695,    3699,    3701,    3707,    3711,    3713,    3717,
    3721,    3727,    3731,    3735,    3737,    3743,    3745,    3815,    3819,    3823,
    3827,    3829,    3835,    3837,    3843,    3847,    3849,    3855,    3859,    3863
*ELSET, ELSET=SS1_S2
     191,     192,     193,     194,     195,     196,     197,     198,     199,     200,
     201,     202,     211,     212,     213,     214,     219,     237,     297,     332,
     372,     374,     380,     384,     388,     392,     396,     400,     404,     408,
     412,     414,     420,     424,    3370,    3373,    3376,    3379,    3382,    3385,
    3388,    3391,    3394,    3445,    3448,    3451,    3454,    3457,    3460,    3463,
    3466,    3469,    3472,    3475,    3478,    3481,    3484,    3487,    3538,    3541,
    3544,    3547,    3550,    3553,    3556,    3559,    3562,    3565,    3568,    3571,
    3574
*ELSET, ELSET=SS1_S3
    3885,    3886,    3887,    3888,    3889,    3890,    3891,    3892,    3893,    3894,
    3895,    3896,    3897,    3898,    3899,    3900,    3901,    3902,    3903,    3904,
    3905,    3906,    3907,    3908,    3909,    3910,    3911,    4371,    4372,    4373,
    4374,    4375,    4376,    4377,    4378,    4379,    4380,    4381,    4382,    4383,
    4384,    4385,    4386,    4387,    4388,    4389,    4390,    4391,    4392,    4393,
    4394,    4395,    4396,    4397,    4857,    4858,    4859,    4860,    4861,    4862,
    4863,    4864,    4865,    4866,    4867,    4868,    4869,    4870,    4871,    4872,
    4873,    4874,    4875,    4876,    4877,    4878,    4879,    4880,    4881,    4882,
    4883,    5343,    5344,    5345,    5346,    5347,    5348,    5349,    5350,    5351,
    5352,    5353,    5354,    5355,    5356,    5357,    5358,    5359,    5360,    5361,
    5362,    5363,    5364,    5365,    5366,    5367,    5368,    5369,    5829,    5830,
    5831,    5832,    5833,    5834,    5835,    5836,    5837,    5838,    5839,    5840,
    5841,    5842,    5843,    5844,    5845,    5846,    5847,    5848,    5849,    5850,
    5851,    5852,    5853,    5854,    5855,    6315,    6316,    6317,    6318,    6319,
    6320,    6321,    6322,    6323,    6324,    6325,    6326,    6327,    6328,    6329,
    6330,    6331,    6332,    6333,    6334,    6335,    6336,    6337,    6338,    6339,
    6340,    6341,    6801,    6802,    6803,    6804,    6805,    6806,    6807,    6808,
    6809,    6810,    6811,    6812,    6813,    6814,    6815,    6816,    6817,    6818,
    6819,    6820,    6821,    6822,    6823,    6824,    6825,    6826,    6827,    7287,
    7288,    7289,    7290,    7291,    7292,    7293,    7294,    7295,    7296,    7297,
** ... 29 like lines cut
*SURFACE, NAME=SS1
SS1_S1, S1
SS1_S2, S2
SS1_S3, S3
*ELSET, ELSET=SS2_S2
     490,     520,     523,     526,     529,     539,     541,     557,     578,     583,
     779,     780,     781,     782,     870,     871,     872,     873,    1148,    1149,
    1150,    1151,    1181,    1182,    1183,    1184,    1452,    1453,    1454,    1455
*ELSET, ELSET=SS2_S3
       1,       2,       3,       4,       5,      26,      27,      28,      29,      30,
      51,      52,      53,      54,      55,      76,      77,      78,      79,      80,
     101,     102,     103,     104,     105,     126,     127,     128,     129,     130,
     151,     152,     203,     204,     207,     208,     211,     212,     235,     255,
     289,     293,     300,     304,     309,     312,     316,     320,     333,     334,
     335,     336,     402,     403,     404,     405,     454,     455,     456,     457
*ELSET, ELSET=SS2_S5
     705,     706,     707,     759,     760,     761,    1114,    1115,    1116,    1129,
    1130,    1131,    1426,    1427,    1428,    1743,    1744,    1745,    1799,    1800,
    1801,    1802,    2036,    2037,    2038,    2057,    2058,    2059,    2091,    2092,
    2093,    2094,    2115,    2116,    2117,    2118,    2502,    2503,    2504,    2508,
    2509,    2510,    2545,    2546,    2547,    2548,    2569,    2570,    2571,    2572,
    2929,    2930,    2931,    2948,    2949,    2950,    2951,    3123,    3124,    3125,
    3299,    3300,    3301,    3302,    3506,    3507,    3508,    3536,    3537,    3538,
    3597,    3598,    3599,    3600,    3613,    3614,    3615,    3616
*ELSET, ELSET=SS2_S6
    3885,    3912,    3939,    3966,    3993,    4020,    4047,    4074,    4101,    4128,
    4155,    4182,    4209,    4236,    4263,    4290,    4317,    4344,    4371,    4398,
    4425,    4452,    4479,    4506,    4533,    4560,    4587,    4614,    4641,    4668,
    4695,    4722,    4749,    4776,    4803,    4830,    4857,    4884,    4911,    4938,
    4965,    4992,    5019,    5046,    5073,    5100,    5127,    5154,    5181,    5208,
    5235,    5262,    5289,    5316,    5343,    5370,    5397,    5424,    5451,    5478,
    5505,    5532,    5559,    5586,    5613,    5640,    5667,    5694,    5721,    5748,
    5775,    5802,    5829,    5856,    5883,    5910,    5937,    5964,    5991,    6018,
    6045,    6072,    6099,    6126,    6153,    6180,    6207,    6234,    6261,    6288,
    6315,    6342,    6369,    6396,    6423,    6450,    6477,    6504,    6531,    6558,
    6585,    6612,    6639,    6666,    6693,    6720,    6747,    6774,    6801,    6828,
    6855,    6882,    6909,    6936,    6963,    6990,    7017,    7044,    7071,    7098,
    7125,    7152,    7179,    7206,    7233,    7260,    7287,    7314,    7341,    7368,
    7395,    7422,    7449,    7476,    7503,    7530,    7557,    7584,    7611,    7638,
    7665,    7692,    7719,    7746,    7773,    7800,    7827,    7854,    7881,    7908,
    7935,    7962,    7989,    8016,    8043,    8070,    8097,    8124,    8151,    8178,
    8205,    8232,    8259,    8286,    8313,    8340,    8367,    8394,    8421,    8448,
    8475,    8502,    8529,    8556,    8583,    8610,    8637,    8664,    8691,    8718,
    8745,    8772,    8799,    8826,    8853,    8880,    8907,    8934,    8961,    8988,
    9015,    9042,    9069,    9096,    9123,    9150,    9177,    9204,    9231,    9258,
** ... 13 like lines cut
*SURFACE, NAME=SS2
SS2_S2, S2
SS2_S3, S3
SS2_S5, S5
SS2_S6, S6
*ELSET, ELSET=SS3_S5
      21,      22,      23,      24,      25,      46,      47,      48,      49,      50,
      71,      72,      73,      74,      75,      96,      97,      98,      99,     100,
     121,     122,     123,     124,     125,     146,     147,     148,     149,     150,
     162,     163,     164,     165,     166,     174,     175,     176,     177,     178,
     186,     187,     188,     189,     190,     198,     199,     200,     201,     202
*SURFACE, NAME=SS3
SS3_S5, S5
*ELSET, ELSET=SS4_S1
     498,     548,     554,     655,     659,     809,     839,     952,    1621,    2105,
    2109,    2111,    2115,    2119,    2123,    2127,    2133,    2137,    2139,    2143,
    2149,    2153,    2157,    2159,    2163,    2169,    2237,    2239,    2243,    2247,
    2251,    2255,    2259,    2265,    2269,    2271,    2275,    2279,    3885,    3886,
    3887,    3888,    3889,    3890,    3891,    3892,    3893,    3894,    3895,    3896,
    3897,    3898,    3899,    3900,    3901,    3902,    3903,    3904,    3905,    3906,
    3907,    3908,    3909,    3910,    3911,    3912,    3913,    3914,    3915,    3916,
    3917,    3918,    3919,    3920,    3921,    3922,    3923,    3924,    3925,    3926,
    3927,    3928,    3929,    3930,    3931,    3932,    3933,    3934,    3935,    3936,
    3937,    3938,    3939,    3940,    3941,    3942,    3943,    3944,    3945,    3946,
    3947,    3948,    3949,    3950,    3951,    3952,    3953,    3954,    3955,    3956,
    3957,    3958,    3959,    3960,    3961,    3962,    3963,    3964,    3965,    3966,
    3967,    3968,    3969,    3970,    3971,    3972,    3973,    3974,    3975,    3976,
    3977,    3978,    3979,    3980,    3981,    3982,    3983,    3984,    3985,    3986,
    3987,    3988,    3989,    3990,    3991,    3992,    3993,    3994,    3995,    3996,
    3997,    3998,    3999,    4000,    4001,    4002,    4003,    4004,    4005,    4006,
    4007,    4008,    4009,    4010,    4011,    4012,    4013,    4014,    4015,    4016,
    4017,    4018,    4019,    4020,    4021,    4022,    4023,    4024,    4025,    4026,
    4027,    4028,    4029,    4030,    4031,    4032,    4033,    4034,    4035,    4036,
    4037,    4038,    4039,    4040,    4041,    4042,    4043,    4044,    4045,    4046,
** ... 33 like lines cut
*ELSET, ELSET=SS4_S2
    1927,    1930,    1933,    1936,    1939,    1942,    1945,    1948,    1951,    1990,
    1993,    1996,    1999,    2002,    2005,    2008,    2011,    2014,    2017,    2020,
    2023,    2026,    2029,    2032,    2035,    2038,    2041,    2044
*ELSET, ELSET=SS4_S3
    2709,    2710,    2711,    2712,    2741,    2742,    2743,    2744,    3032,    3033,
    3034,    3035,    3251,    3252,    3253,    3254,    3745,    3746,    3747,    3748,
    3809,    3810,    3811,    3812
*ELSET, ELSET=SS4_S5
    2349,    2350,    2351,    2394,    2395,    2396,    2875,    2876,    2877,    3168,
    3169,    3170,    3401,    3402,    3403,    3449,    3450,    3451
*ELSET, ELSET=SS4_S6
       1,       6,      11,      16,      21,      26,      31,      36,      41,      46,
      51,      56,      61,      66,      71,      76,      81,      86,      91,      96,
     101,     106,     111,     116,     121,     126,     131,     136,     141,     146,
     157,     162,     169,     174,     181,     186,     193,     198,     225,     264,
     311,     324,     328,     333,     337,     341,     345,     349,     354,     360,
     362,     366,     374,     375,     376,     377,     438,     439,     440,     441
*SURFACE, NAME=SS4
SS4_S1, S1
SS4_S2, S2
SS4_S3, S3
SS4_S5, S5
SS4_S6, S6
**
********************************** P R O P E R T I E S ************************
*SOLID SECTION, ELSET=EB1, MATERIAL=Default-Steel
**
*END PART
**
**
**
********************************** E N D   P A R T S **********************************
**
**
********************************** A S S E M B L Y ************************************
**
*ASSEMBLY, NAME=ASSEMBLY1
**
*INSTANCE, NAME=Part-Default_1, PART=Part-Default
*END INSTANCE
**
*END ASSEMBLY
**
**
**
*MATERIAL, NAME = Default-Steel
*ELASTIC, TYPE=ISOTROPIC
2.068000e+05, 2.900000e-01
*DENSITY
7.000000e-06
*CONDUCTIVITY,TYPE=ISO
4.500000e-02
*SPECIFIC HEAT
5.000000e+02
**
**
************************************** H I S T O R Y *************************************
**
*PREPRINT
**
**************************************** S T E P 1 ***************************************
*STEP,INC=100,NAME=Default Set
**
*STATIC
1, 1, 1e-05, 1
**
**
**
**
*END STEP
