*HEADING
cubit(tHub/indentify/lib/Axisymmetric Indentation/true_mesh.inp): 05/12/2024: 09
version: 2023.4
**
********************************** P A R T S **********************************
*PART, NAME=Part-Default
**
********************************** N O D E S **********************************
*NODE, NSET=ALLNODES
       1,    0.000000e+00,    0.000000e+00,    3.500000e+01
       2,    0.000000e+00,    9.444444e+00,    3.500000e+01
       3,    0.000000e+00,    8.888889e+00,    3.500000e+01
       4,    0.000000e+00,    8.333333e+00,    3.500000e+01
       5,    0.000000e+00,    7.777778e+00,    3.500000e+01
       6,    0.000000e+00,    7.222222e+00,    3.500000e+01
       7,    0.000000e+00,    6.666667e+00,    3.500000e+01
       8,    0.000000e+00,    6.111111e+00,    3.500000e+01
       9,    0.000000e+00,    5.555556e+00,    3.500000e+01
      10,    0.000000e+00,    5.000000e+00,    3.500000e+01
      11,    0.000000e+00,    4.444444e+00,    3.500000e+01
      12,    0.000000e+00,    3.888889e+00,    3.500000e+01
      13,    0.000000e+00,    3.333333e+00,    3.500000e+01
      14,    0.000000e+00,    2.777778e+00,    3.500000e+01
      15,    0.000000e+00,    2.222222e+00,    3.500000e+01
      16,    0.000000e+00,    1.666667e+00,    3.500000e+01
      17,    0.000000e+00,    1.111111e+00,    3.500000e+01
      18,    0.000000e+00,    5.555556e-01,    3.500000e+01
      19,    5.555556e-01,    0.000000e+00,    3.500000e+01
      20,    1.111111e+00,    0.000000e+00,    3.500000e+01
** ... 26106 like lines cut
**
********************************** E L E M E N T S ****************************
*ELEMENT, TYPE=C3D8R, ELSET=EB1
       1,   17591,   17605,   17740,   17693,   17598,   17629,   18021,   17819
       2,   17605,   17604,   17734,   17740,   17629,   17636,   18022,   18021
       3,   17604,   17603,   17728,   17734,   17636,   17643,   18023,   18022
       4,   17603,   17602,   17722,   17728,   17643,   17650,   18024,   18023
       5,   17602,   17601,   17716,   17722,   17650,   17657,   18025,   18024
       6,   17601,   17600,   17710,   17716,   17657,   17664,   18026,   18025
       7,   17600,   17599,   17691,   17710,   17664,   17618,   17923,   18026
       8,   17693,   17740,   17739,   17694,   17819,   18021,   18027,   17812
       9,   17740,   17734,   17733,   17739,   18021,   18022,   18028,   18027
      10,   17734,   17728,   17727,   17733,   18022,   18023,   18029,   18028
      11,   17728,   17722,   17721,   17727,   18023,   18024,   18030,   18029
      12,   17722,   17716,   17715,   17721,   18024,   18025,   18031,   18030
      13,   17716,   17710,   17709,   17715,   18025,   18026,   18032,   18031
      14,   17710,   17691,   17690,   17709,   18026,   17923,   17936,   18032
      15,   17694,   17739,   17738,   17695,   17812,   18027,   18033,   17805
      16,   17739,   17733,   17732,   17738,   18027,   18028,   18034,   18033
      17,   17733,   17727,   17726,   17732,   18028,   18029,   18035,   18034
      18,   17727,   17721,   17720,   17726,   18029,   18030,   18036,   18035
      19,   17721,   17715,   17714,   17720,   18030,   18031,   18037,   18036
      20,   17715,   17709,   17708,   17714,   18031,   18032,   18038,   18037
** ... 24424 like lines cut
**
********************************** S I D E S E T S **********************************
*ELSET, ELSET=SS1_S1
    1154,    1155,    1244,    1245,    1584,    1861,    1928,    2126,    2265,    2501,
    2838,    2894,    4282,    4286,    4292,    4296,    4300,    4368,    4372,    4376,
    4380,    4382,    4388,    4392,    4396,    4398,    4404,    4408,    4410,    4414,
    4418,    4424,    4428,    4432,    4434,    4440,    4442,    4512,    4516,    4520,
    4524,    4526,    4532,    4534,    4540,    4544,    4546,    4552,    4556,    4560
*ELSET, ELSET=SS1_S2
     544,     545,     546,     547,     548,     549,     550,     551,     552,     553,
     554,     555,     556,     557,     558,     559,     560,     561,     562,     563,
     564,     565,     566,     567,     568,     569,     570,     571,     572,     573,
     574,     575,     616,     617,     618,     619,     620,     621,     622,     623,
     629,     651,     728,     752,     793,     795,     801,     805,     809,     813,
     817,     821,     825,     829,     833,     835,     841,     845,    4067,    4070,
    4073,    4076,    4079,    4082,    4085,    4088,    4091,    4142,    4145,    4148,
    4151,    4154,    4157,    4160,    4163,    4166,    4169,    4172,    4175,    4178,
    4181,    4184,    4235,    4238,    4241,    4244,    4247,    4250,    4253,    4256,
    4259,    4262,    4265,    4268,    4271
*ELSET, ELSET=SS1_S3
    6949,    6950,    6951,    6952,    6953,    6954,    6955,    6956,    6957,    6958,
    6959,    6960,    6961,    6962,    6963,    6964,    6965,    6966,    6967,    6968,
    6969,    6970,    6971,    6972,    6973,    6974,    6975,    6976,    6977,    6978,
    6979,    6980,    6981,    6982,    6983,    6984,    6985,    6986,    6987,    6988,
    6989,    6990,    6991,    6992,    6993,    6994,    6995,    6996,    6997,    6998,
    6999,    7000,    7001,    7002,    7921,    7922,    7923,    7924,    7925,    7926,
    7927,    7928,    7929,    7930,    7931,    7932,    7933,    7934,    7935,    7936,
    7937,    7938,    7939,    7940,    7941,    7942,    7943,    7944,    7945,    7946,
    7947,    7948,    7949,    7950,    7951,    7952,    7953,    7954,    7955,    7956,
    7957,    7958,    7959,    7960,    7961,    7962,    7963,    7964,    7965,    7966,
    7967,    7968,    7969,    7970,    7971,    7972,    7973,    7974,    8893,    8894,
    8895,    8896,    8897,    8898,    8899,    8900,    8901,    8902,    8903,    8904,
    8905,    8906,    8907,    8908,    8909,    8910,    8911,    8912,    8913,    8914,
    8915,    8916,    8917,    8918,    8919,    8920,    8921,    8922,    8923,    8924,
    8925,    8926,    8927,    8928,    8929,    8930,    8931,    8932,    8933,    8934,
    8935,    8936,    8937,    8938,    8939,    8940,    8941,    8942,    8943,    8944,
    8945,    8946,    9865,    9866,    9867,    9868,    9869,    9870,    9871,    9872,
    9873,    9874,    9875,    9876,    9877,    9878,    9879,    9880,    9881,    9882,
    9883,    9884,    9885,    9886,    9887,    9888,    9889,    9890,    9891,    9892,
    9893,    9894,    9895,    9896,    9897,    9898,    9899,    9900,    9901,    9902,
** ... 78 like lines cut
*SURFACE, NAME=SS1
SS1_S1, S1
SS1_S2, S2
SS1_S3, S3
*ELSET, ELSET=SS2_S2
    1079,    1109,    1112,    1115,    1118,    1128,    1130,    1146,    1185,    1190,
    1404,    1405,    1406,    1407,    1495,    1496,    1497,    1498,    1782,    1783,
    1784,    1785,    1815,    1816,    1817,    1818,    2104,    2105,    2106,    2107
*ELSET, ELSET=SS2_S3
       1,       2,       3,       4,       5,       6,       7,      50,      51,      52,
      53,      54,      55,      56,      99,     100,     101,     102,     103,     104,
     105,     148,     149,     150,     151,     152,     153,     154,     197,     198,
     199,     200,     201,     202,     203,     246,     247,     248,     249,     250,
     251,     252,     295,     296,     297,     298,     299,     300,     301,     344,
     345,     346,     347,     576,     577,     578,     579,     584,     585,     586,
     587,     592,     593,     594,     595,     600,     601,     602,     603,     608,
     609,     610,     611,     616,     617,     618,     619,     647,     670,     704,
     708,     715,     719,     723,     730,     734,     738,     761,     762,     763,
     764,     811,     812,     813,     814,     875,     876,     877,     878,     931,
     932,     933,     934,     987,     988,     989,     990,    1043,    1044,    1045,
    1046
*ELSET, ELSET=SS2_S5
    1330,    1331,    1332,    1384,    1385,    1386,    1748,    1749,    1750,    1763,
    1764,    1765,    2078,    2079,    2080,    2434,    2435,    2436,    2467,    2468,
    2469,    2470,    2712,    2713,    2714,    2736,    2737,    2738,    2770,    2771,
    2772,    2773,    2794,    2795,    2796,    2797,    3199,    3200,    3201,    3205,
    3206,    3207,    3242,    3243,    3244,    3245,    3266,    3267,    3268,    3269,
    3626,    3627,    3628,    3645,    3646,    3647,    3648,    3838,    3839,    3840,
    3984,    3985,    3986,    3987,    4203,    4204,    4205,    4233,    4234,    4235,
    4294,    4295,    4296,    4297,    4310,    4311,    4312,    4313,    4684,    4685,
    4686,    4690,    4691,    4692,    4896,    4897,    4898,    4899,    4964,    4965,
    4966,    4967,    5183,    5184,    5185,    5231,    5232,    5233,    5234,    5473,
    5474,    5475,    5479,    5480,    5481,    5685,    5686,    5687,    5688,    5753,
    5754,    5755,    5756,    5924,    5925,    5926,    6084,    6085,    6086,    6087,
    6247,    6248,    6249,    6253,    6254,    6255,    6450,    6451,    6452,    6453,
    6518,    6519,    6520,    6521,    6761,    6762,    6763,    6809,    6810,    6811,
    6812
*ELSET, ELSET=SS2_S6
    6949,    7003,    7057,    7111,    7165,    7219,    7273,    7327,    7381,    7435,
    7489,    7543,    7597,    7651,    7705,    7759,    7813,    7867,    7921,    7975,
    8029,    8083,    8137,    8191,    8245,    8299,    8353,    8407,    8461,    8515,
    8569,    8623,    8677,    8731,    8785,    8839,    8893,    8947,    9001,    9055,
    9109,    9163,    9217,    9271,    9325,    9379,    9433,    9487,    9541,    9595,
    9649,    9703,    9757,    9811,    9865,    9919,    9973,   10027,   10081,   10135,
   10189,   10243,   10297,   10351,   10405,   10459,   10513,   10567,   10621,   10675,
   10729,   10783,   10837,   10891,   10945,   10999,   11053,   11107,   11161,   11215,
   11269,   11323,   11377,   11431,   11485,   11539,   11593,   11647,   11701,   11755,
   11809,   11863,   11917,   11971,   12025,   12079,   12133,   12187,   12241,   12295,
   12349,   12403,   12457,   12511,   12565,   12619,   12673,   12727,   12781,   12835,
   12889,   12943,   12997,   13051,   13105,   13159,   13213,   13267,   13321,   13375,
   13429,   13483,   13537,   13591,   13645,   13699,   13753,   13807,   13861,   13915,
   13969,   14023,   14077,   14131,   14185,   14239,   14293,   14347,   14401,   14455,
   14509,   14563,   14617,   14671,   14725,   14779,   14833,   14887,   14941,   14995,
   15049,   15103,   15157,   15211,   15265,   15319,   15373,   15427,   15481,   15535,
   15589,   15643,   15697,   15751,   15805,   15859,   15913,   15967,   16021,   16075,
   16129,   16183,   16237,   16291,   16345,   16399,   16453,   16507,   16561,   16615,
   16669,   16723,   16777,   16831,   16885,   16939,   16993,   17047,   17101,   17155,
   17209,   17263,   17317,   17371,   17425,   17479,   17533,   17587,   17641,   17695,
** ... 13 like lines cut
*SURFACE, NAME=SS2
SS2_S2, S2
SS2_S3, S3
SS2_S5, S5
SS2_S6, S6
*ELSET, ELSET=SS3_S5
      43,      44,      45,      46,      47,      48,      49,      92,      93,      94,
      95,      96,      97,      98,     141,     142,     143,     144,     145,     146,
     147,     190,     191,     192,     193,     194,     195,     196,     239,     240,
     241,     242,     243,     244,     245,     288,     289,     290,     291,     292,
     293,     294,     337,     338,     339,     340,     341,     342,     343,     377,
     378,     379,     380,     381,     382,     383,     409,     410,     411,     412,
     413,     414,     415,     441,     442,     443,     444,     445,     446,     447,
     473,     474,     475,     476,     477,     478,     479,     505,     506,     507,
     508,     509,     510,     511,     537,     538,     539,     540,     541,     542,
     543,     569,     570,     571,     572,     573,     574,     575
*SURFACE, NAME=SS3
SS3_S5, S5
*ELSET, ELSET=SS4_S1
    1087,    1137,    1143,    1260,    1264,    1434,    1464,    1568,    2312,    2784,
    2786,    2790,    2794,    2798,    2802,    2806,    2810,    2816,    2818,    2822,
    2826,    2830,    2836,    2922,    2924,    2928,    2932,    2936,    2942,    2946,
    2950,    2954,    2956,    2960,    2966,    2970,    2974,    2976,    6949,    6950,
    6951,    6952,    6953,    6954,    6955,    6956,    6957,    6958,    6959,    6960,
    6961,    6962,    6963,    6964,    6965,    6966,    6967,    6968,    6969,    6970,
    6971,    6972,    6973,    6974,    6975,    6976,    6977,    6978,    6979,    6980,
    6981,    6982,    6983,    6984,    6985,    6986,    6987,    6988,    6989,    6990,
    6991,    6992,    6993,    6994,    6995,    6996,    6997,    6998,    6999,    7000,
    7001,    7002,    7003,    7004,    7005,    7006,    7007,    7008,    7009,    7010,
    7011,    7012,    7013,    7014,    7015,    7016,    7017,    7018,    7019,    7020,
    7021,    7022,    7023,    7024,    7025,    7026,    7027,    7028,    7029,    7030,
    7031,    7032,    7033,    7034,    7035,    7036,    7037,    7038,    7039,    7040,
    7041,    7042,    7043,    7044,    7045,    7046,    7047,    7048,    7049,    7050,
    7051,    7052,    7053,    7054,    7055,    7056,    7057,    7058,    7059,    7060,
    7061,    7062,    7063,    7064,    7065,    7066,    7067,    7068,    7069,    7070,
    7071,    7072,    7073,    7074,    7075,    7076,    7077,    7078,    7079,    7080,
    7081,    7082,    7083,    7084,    7085,    7086,    7087,    7088,    7089,    7090,
    7091,    7092,    7093,    7094,    7095,    7096,    7097,    7098,    7099,    7100,
    7101,    7102,    7103,    7104,    7105,    7106,    7107,    7108,    7109,    7110,
** ... 81 like lines cut
*ELSET, ELSET=SS4_S2
    2606,    2609,    2612,    2615,    2618,    2621,    2624,    2627,    2630,    2633,
    2636,    2675,    2678,    2681,    2684,    2687,    2690,    2693,    2696,    2699,
    2702,    2705,    2708,    2711,    2714,    2717,    2720,    2723
*ELSET, ELSET=SS4_S3
    3402,    3403,    3404,    3405,    3434,    3435,    3436,    3437,    3729,    3730,
    3731,    3732,    3948,    3949,    3950,    3951,    4442,    4443,    4444,    4445,
    4506,    4507,    4508,    4509,    4836,    4837,    4838,    4839,    5052,    5053,
    5054,    5055,    5323,    5324,    5325,    5326,    5625,    5626,    5627,    5628,
    5841,    5842,    5843,    5844,    6056,    6057,    6058,    6059,    6414,    6415,
    6416,    6417,    6630,    6631,    6632,    6633,    6901,    6902,    6903,    6904
*ELSET, ELSET=SS4_S5
    3043,    3044,    3045,    3088,    3089,    3090,    3572,    3573,    3574,    3865,
    3866,    3867,    4098,    4099,    4100,    4146,    4147,    4148,    4597,    4598,
    4599,    4756,    4757,    4758,    5138,    5139,    5140,    5386,    5387,    5388,
    5545,    5546,    5547,    5972,    5973,    5974,    6175,    6176,    6177,    6334,
    6335,    6336,    6716,    6717,    6718
*ELSET, ELSET=SS4_S6
       1,       8,      15,      22,      29,      36,      43,      50,      57,      64,
      71,      78,      85,      92,      99,     106,     113,     120,     127,     134,
     141,     148,     155,     162,     169,     176,     183,     190,     197,     204,
     211,     218,     225,     232,     239,     246,     253,     260,     267,     274,
     281,     288,     295,     302,     309,     316,     323,     330,     337,     356,
     363,     370,     377,     388,     395,     402,     409,     420,     427,     434,
     441,     452,     459,     466,     473,     484,     491,     498,     505,     516,
     523,     530,     537,     548,     555,     562,     569,     637,     679,     729,
     742,     746,     753,     757,     761,     765,     769,     775,     781,     783,
     787,     795,     796,     797,     798,     855,     856,     857,     858,     911,
     912,     913,     914,     967,     968,     969,     970,    1027,    1028,    1029,
    1030
*SURFACE, NAME=SS4
SS4_S1, S1
SS4_S2, S2
SS4_S3, S3
SS4_S5, S5
SS4_S6, S6
**
********************************** P R O P E R T I E S ************************
*SOLID SECTION, ELSET=EB1, MATERIAL=Default-Steel
**
*END PART
**
**
**
********************************** E N D   P A R T S **********************************
**
**
********************************** A S S E M B L Y ************************************
**
*ASSEMBLY, NAME=ASSEMBLY1
**
*INSTANCE, NAME=Part-Default_1, PART=Part-Default
*END INSTANCE
**
*END ASSEMBLY
**
**
**
*MATERIAL, NAME = Default-Steel
*ELASTIC, TYPE=ISOTROPIC
2.068000e+05, 2.900000e-01
*DENSITY
7.000000e-06
*CONDUCTIVITY,TYPE=ISO
4.500000e-02
*SPECIFIC HEAT
5.000000e+02
**
**
************************************** H I S T O R Y *************************************
**
*PREPRINT
**
**************************************** S T E P 1 ***************************************
*STEP,INC=100,NAME=Default Set
**
*STATIC
1, 1, 1e-05, 1
**
**
**
**
*END STEP
