*HEADING
cubit(entify/lib/Axisymmetric Indentation/true_mesh_coarse5.inp): 05/12/2024: 14
version: 2023.4
**
********************************** P A R T S **********************************
*PART, NAME=Part-Default
**
********************************** N O D E S **********************************
*NODE, NSET=ALLNODES
       1,    0.000000e+00,    0.000000e+00,    3.500000e+01
       2,    0.000000e+00,    1.866667e+01,    3.500000e+01
       3,    0.000000e+00,    1.633333e+01,    3.500000e+01
       4,    0.000000e+00,    1.400000e+01,    3.500000e+01
       5,    0.000000e+00,    1.166667e+01,    3.500000e+01
       6,    0.000000e+00,    9.333333e+00,    3.500000e+01
       7,    0.000000e+00,    7.000000e+00,    3.500000e+01
       8,    0.000000e+00,    4.666667e+00,    3.500000e+01
       9,    0.000000e+00,    2.333333e+00,    3.500000e+01
      10,    2.333333e+00,    0.000000e+00,    3.500000e+01
      11,    4.666667e+00,    0.000000e+00,    3.500000e+01
      12,    7.000000e+00,    0.000000e+00,    3.500000e+01
      13,    9.333333e+00,    0.000000e+00,    3.500000e+01
      14,    1.166667e+01,    0.000000e+00,    3.500000e+01
      15,    1.400000e+01,    0.000000e+00,    3.500000e+01
      16,    1.633333e+01,    0.000000e+00,    3.500000e+01
      17,    1.866667e+01,    0.000000e+00,    3.500000e+01
      18,    1.866667e+01,    2.333333e+00,    3.500000e+01
      19,    1.866667e+01,    4.666667e+00,    3.500000e+01
      20,    1.866667e+01,    7.000000e+00,    3.500000e+01
** ... 1913 like lines cut
**
********************************** E L E M E N T S ****************************
*ELEMENT, TYPE=C3D8R, ELSET=EB1
       1,     787,     798,     864,     841,     793,     814,     989,     900
       2,     798,     797,     860,     864,     814,     820,     990,     989
       3,     797,     796,     856,     860,     820,     826,     991,     990
       4,     796,     795,     852,     856,     826,     832,     992,     991
       5,     795,     794,     839,     852,     832,     807,     954,     992
       6,     841,     864,     863,     842,     900,     989,     993,     894
       7,     864,     860,     859,     863,     989,     990,     994,     993
       8,     860,     856,     855,     859,     990,     991,     995,     994
       9,     856,     852,     851,     855,     991,     992,     996,     995
      10,     852,     839,     838,     851,     992,     954,     963,     996
      11,     842,     863,     862,     843,     894,     993,     997,     888
      12,     863,     859,     858,     862,     993,     994,     998,     997
      13,     859,     855,     854,     858,     994,     995,     999,     998
      14,     855,     851,     850,     854,     995,     996,    1000,     999
      15,     851,     838,     837,     850,     996,     963,     972,    1000
      16,     843,     862,     861,     844,     888,     997,    1001,     882
      17,     862,     858,     857,     861,     997,     998,    1002,    1001
      18,     858,     854,     853,     857,     998,     999,    1003,    1002
      19,     854,     850,     849,     853,     999,    1000,    1004,    1003
      20,     850,     837,     836,     849,    1000,     972,     981,    1004
** ... 1592 like lines cut
**
********************************** S I D E S E T S **********************************
*ELSET, ELSET=SS1_S1
     610,     613,     616,     619,     622,     625,     628,     631,     634,     637,
     640,     643,     646,     649,     652,     655,     658,     661,     664
*ELSET, ELSET=SS1_S2
     172,     173,     174,     175,     176,     177,     184,     185,     186,     195,
     226,     331,     397,     495,     576,     669,     671,     677,     681,     685,
     689,     693,     697,     701,     705,     709,     713,     717,     721,     725,
     729,     733,     735,     741,     745
*ELSET, ELSET=SS1_S3
     884,     885,     886,     887,     888,     889,     890,     891,     892,     965,
     966,     967,     968,     969,     970,     971,     972,     973,    1046,    1047,
    1048,    1049,    1050,    1051,    1052,    1053,    1054,    1127,    1128,    1129,
    1130,    1131,    1132,    1133,    1134,    1135,    1208,    1209,    1210,    1211,
    1212,    1213,    1214,    1215,    1216,    1289,    1290,    1291,    1292,    1293,
    1294,    1295,    1296,    1297,    1370,    1371,    1372,    1373,    1374,    1375,
    1376,    1377,    1378,    1451,    1452,    1453,    1454,    1455,    1456,    1457,
    1458,    1459,    1532,    1533,    1534,    1535,    1536,    1537,    1538,    1539,
    1540
*SURFACE, NAME=SS1
SS1_S1, S1
SS1_S2, S2
SS1_S3, S3
*ELSET, ELSET=SS2_S2
     304,     307,     310,     313,     316,     319,     322
*ELSET, ELSET=SS2_S3
       1,       2,       3,       4,       5,      26,      27,      28,      29,      30,
      51,      52,      53,      54,      55,      76,      77,      78,      79,      80,
     101,     102,     103,     104,     105,     126,     127,     128,     129,     130,
     151,     178,     181,     184,     232,     293,     325,     329,     335,     337,
     342,     347,     351,     355,     403,     404,     405,     406,     568,     569,
     570,     571,     703,     704,     705,     706,     852,     853,     854,     855
*ELSET, ELSET=SS2_S5
     377,     378,     379,     534,     535,     536,     622,     623,     624,     768,
     769,     770
*ELSET, ELSET=SS2_S6
     884,     893,     902,     911,     920,     929,     938,     947,     956,     965,
     974,     983,     992,    1001,    1010,    1019,    1028,    1037,    1046,    1055,
    1064,    1073,    1082,    1091,    1100,    1109,    1118,    1127,    1136,    1145,
    1154,    1163,    1172,    1181,    1190,    1199,    1208,    1217,    1226,    1235,
    1244,    1253,    1262,    1271,    1280,    1289,    1298,    1307,    1316,    1325,
    1334,    1343,    1352,    1361,    1370,    1379,    1388,    1397,    1406,    1415,
    1424,    1433,    1442,    1451,    1460,    1469,    1478,    1487,    1496,    1505,
    1514,    1523,    1532,    1541,    1550,    1559,    1568,    1577,    1586,    1595,
    1604
*SURFACE, NAME=SS2
SS2_S2, S2
SS2_S3, S3
SS2_S5, S5
SS2_S6, S6
*ELSET, ELSET=SS3_S5
      21,      22,      23,      24,      25,      46,      47,      48,      49,      50,
      71,      72,      73,      74,      75,      96,      97,      98,      99,     100,
     121,     122,     123,     124,     125,     146,     147,     148,     149,     150,
     155,     156,     157,     158,     159,     161,     162,     163,     164,     165,
     167,     168,     169,     170,     171,     173,     174,     175,     176,     177
*SURFACE, NAME=SS3
SS3_S5, S5
*ELSET, ELSET=SS4_S1
     359,     362,     365,     368,     371,     374,     377,     380,     383,     386,
     884,     885,     886,     887,     888,     889,     890,     891,     892,     893,
     894,     895,     896,     897,     898,     899,     900,     901,     902,     903,
     904,     905,     906,     907,     908,     909,     910,     911,     912,     913,
     914,     915,     916,     917,     918,     919,     920,     921,     922,     923,
     924,     925,     926,     927,     928,     929,     930,     931,     932,     933,
     934,     935,     936,     937,     938,     939,     940,     941,     942,     943,
     944,     945,     946,     947,     948,     949,     950,     951,     952,     953,
     954,     955,     956,     957,     958,     959,     960,     961,     962,     963,
     964
*ELSET, ELSET=SS4_S3
     454,     455,     456,     643,     644,     645,     792,     793,     794
*ELSET, ELSET=SS4_S6
       1,       6,      11,      16,      21,      26,      31,      36,      41,      46,
      51,      56,      61,      66,      71,      76,      81,      86,      91,      96,
     101,     106,     111,     116,     121,     126,     131,     136,     141,     146,
     155,     161,     167,     173,     196,     275,     341,     389,     393,     399,
     403,     407,     411,     415,     419,     426,     428,     432,     478,     479,
     480,     481,     671,     672,     673,     674,     824,     825,     826,     827
*SURFACE, NAME=SS4
SS4_S1, S1
SS4_S3, S3
SS4_S6, S6
**
********************************** P R O P E R T I E S ************************
*SOLID SECTION, ELSET=EB1, MATERIAL=Default-Steel
**
*END PART
**
**
**
********************************** E N D   P A R T S **********************************
**
**
********************************** A S S E M B L Y ************************************
**
*ASSEMBLY, NAME=ASSEMBLY1
**
*INSTANCE, NAME=Part-Default_1, PART=Part-Default
*END INSTANCE
**
*END ASSEMBLY
**
**
**
*MATERIAL, NAME = Default-Steel
*ELASTIC, TYPE=ISOTROPIC
2.068000e+05, 2.900000e-01
*DENSITY
7.000000e-06
*CONDUCTIVITY,TYPE=ISO
4.500000e-02
*SPECIFIC HEAT
5.000000e+02
**
**
************************************** H I S T O R Y *************************************
**
*PREPRINT
**
**************************************** S T E P 1 ***************************************
*STEP,INC=100,NAME=Default Set
**
*STATIC
1, 1, 1e-05, 1
**
**
**
**
*END STEP
